   25
scf done: -2924.855198
 S    -3.260203    -0.558767    -1.401927
 P    -3.062250    -0.536815     0.743695
 P    -1.260404    -0.539078    -2.009406
 P    -0.224187    -1.956422    -0.549220
 P    -0.251881     0.931496    -0.575466
 S    -1.752282    -2.221976     0.952249
 S    -1.783733     1.175963     0.925534
 N     0.634134    -0.503347    -0.153778
 C     1.737135    -0.451188     0.828311
 H     1.297332    -0.371179     1.830324
 C     2.573287    -1.728091     0.779103
 C     2.586407     0.781034     0.591629
 H     3.403591    -1.639288     1.481914
 H     1.988810    -2.608040     1.058983
 H     2.984976    -1.891599    -0.219109
 C     2.791928     1.702605     1.618881
 C     3.599385     2.821384     1.419253
 C     4.207412     3.030351     0.184826
 C     4.004211     2.115951    -0.849057
 C     3.200772     0.999441    -0.646221
 H     2.311740     1.549597     2.581547
 H     3.747128     3.531312     2.226643
 H     4.832705     3.902878     0.025597
 H     4.471602     2.276354    -1.815366
 H     3.039926     0.295934    -1.458011
